// European LV Test Feeder
// Converted from OpenDSS model by Yin Xu
// Modified by Jose Rivera
// email: j.rivera@tum.de

//********************************************* 
clock{ 
	 timezone EST+5EDT;
	 timestamp '2000-01-01 0:01:00 EST';
	 starttime '2000-01-01 00:00:00 EST';
	 stoptime '2000-01-02 00:00:00 EST';
}

//********************************************* 
// modules
module tape;
module powerflow{
	 solver_method NR;
	 default_maximum_voltage_error 1e-6;
	 NR_superLU_procs 1;
	 show_matrix_values TRUE;
};

//********************************************* 
// Snapshots
object voltdump 
{
	 filename Result_no_EVs/output_voltage_offpeak.csv;
	 runtime '2000-01-01 00:01:00';
	 mode polar;
}

object currdump
{
	 filename Result_no_EVs/output_current_offpeak.csv;
	 runtime '2000-01-01 00:01:00';
	 mode polar;
}

object voltdump 
{
	 filename Result_no_EVs/output_voltage_peak.csv;
	 runtime '2000-01-01 09:26:00';
	 mode polar;
}

object currdump
{
	 filename Result_no_EVs/output_current_peak.csv;
	 runtime '2000-01-01 09:26:00';
	 mode polar;
}

object voltdump 
{
	 filename Result_no_EVs/output_voltage_end.csv;
	 runtime '2000-01-02 00:00:00';
	 mode polar;
}

object currdump
{
	 filename Result_no_EVs/output_current_end.csv;
	 runtime '2000-01-02 00:00:00';
	 mode polar;
}

// Time series results
object recorder {
	 parent TR1;
	 property power_out.real,power_out.imag,power_out_A.real,power_out_A.imag,power_out_B.real,power_out_B.imag,power_out_C.real,power_out_C.imag;
	 limit 0;
	 interval 0;
	 file "Result_no_EVs/Transformer_output_power.csv";
};

object recorder {
	 parent LOAD1;
	 property voltage_A.real,voltage_A.imag;
	 limit 0;
	 interval 0;
	 file "Result_no_EVs/Load1_voltage.csv";
};

object recorder {
	 parent LOAD32;
	 property voltage_C.real,voltage_C.imag;
	 limit 0;
	 interval 0;
	 file "Result_no_EVs/Load32_voltage.csv";
};

object recorder {
	 parent LOAD53;
	 property voltage_B.real,voltage_B.imag;
	 limit 0;
	 interval 0;
	 file "Result_no_EVs/Load53_voltage.csv";
};

//********************************************* 
// Nodes
object node {
	 name SourceBus;
	 phases ABC;
	 nominal_voltage 6350.852961;
	 voltage_A 6668.395609+0.0d;
	 voltage_B 6668.395609-120.0d;
	 voltage_C 6668.395609+120.0d;
	 bustype SWING;
}

object node {
	 name Bus1;
	 phases ABC;
	 nominal_voltage 240.177712;
}

object node {
	 name Bus2;
	 phases ABC;
	 nominal_voltage 240.177712;
}

object node {
	 name Bus3;
	 phases ABC;
	 nominal_voltage 240.177712;
}

object node {
	 name Bus4;
	 phases ABC;
	 nominal_voltage 240.177712;
}

object node {
	 name Bus5;
	 phases ABC;
	 nominal_voltage 240.177712;
}

object node {
	 name Bus6;
	 phases ABC;
	 nominal_voltage 240.177712;
}

object node {
	 name Bus7;
	 phases ABC;
	 nominal_voltage 240.177712;
}

object node {
	 name Bus8;
	 phases ABC;
	 nominal_voltage 240.177712;
}

object node {
	 name Bus9;
	 phases ABC;
	 nominal_voltage 240.177712;
}

object node {
	 name Bus10;
	 phases ABC;
	 nominal_voltage 240.177712;
}

object node {
	 name Bus11;
	 phases ABC;
	 nominal_voltage 240.177712;
}

object node {
	 name Bus12;
	 phases ABC;
	 nominal_voltage 240.177712;
}

object node {
	 name Bus13;
	 phases ABC;
	 nominal_voltage 240.177712;
}

object node {
	 name Bus14;
	 phases ABC;
	 nominal_voltage 240.177712;
}

object node {
	 name Bus15;
	 phases ABC;
	 nominal_voltage 240.177712;
}

object node {
	 name Bus16;
	 phases ABC;
	 nominal_voltage 240.177712;
}

object node {
	 name Bus17;
	 phases ABC;
	 nominal_voltage 240.177712;
}

object node {
	 name Bus18;
	 phases ABC;
	 nominal_voltage 240.177712;
}

object node {
	 name Bus19;
	 phases ABC;
	 nominal_voltage 240.177712;
}

object node {
	 name Bus20;
	 phases ABC;
	 nominal_voltage 240.177712;
}

object node {
	 name Bus21;
	 phases ABC;
	 nominal_voltage 240.177712;
}

object node {
	 name Bus22;
	 phases ABC;
	 nominal_voltage 240.177712;
}

object node {
	 name Bus23;
	 phases ABC;
	 nominal_voltage 240.177712;
}

object node {
	 name Bus24;
	 phases ABC;
	 nominal_voltage 240.177712;
}

object node {
	 name Bus25;
	 phases ABC;
	 nominal_voltage 240.177712;
}

object node {
	 name Bus26;
	 phases ABC;
	 nominal_voltage 240.177712;
}

object node {
	 name Bus27;
	 phases ABC;
	 nominal_voltage 240.177712;
}

object node {
	 name Bus28;
	 phases ABC;
	 nominal_voltage 240.177712;
}

object node {
	 name Bus29;
	 phases ABC;
	 nominal_voltage 240.177712;
}

object node {
	 name Bus30;
	 phases ABC;
	 nominal_voltage 240.177712;
}

object node {
	 name Bus31;
	 phases ABC;
	 nominal_voltage 240.177712;
}

object node {
	 name Bus32;
	 phases ABC;
	 nominal_voltage 240.177712;
}

object node {
	 name Bus33;
	 phases ABC;
	 nominal_voltage 240.177712;
}

object node {
	 name Bus34;
	 phases ABC;
	 nominal_voltage 240.177712;
}

object node {
	 name Bus35;
	 phases ABC;
	 nominal_voltage 240.177712;
}

object node {
	 name Bus36;
	 phases ABC;
	 nominal_voltage 240.177712;
}

object node {
	 name Bus37;
	 phases ABC;
	 nominal_voltage 240.177712;
}

object node {
	 name Bus38;
	 phases ABC;
	 nominal_voltage 240.177712;
}

object node {
	 name Bus39;
	 phases ABC;
	 nominal_voltage 240.177712;
}

object node {
	 name Bus40;
	 phases ABC;
	 nominal_voltage 240.177712;
}

object node {
	 name Bus41;
	 phases ABC;
	 nominal_voltage 240.177712;
}

object node {
	 name Bus42;
	 phases ABC;
	 nominal_voltage 240.177712;
}

object node {
	 name Bus43;
	 phases ABC;
	 nominal_voltage 240.177712;
}

object node {
	 name Bus44;
	 phases ABC;
	 nominal_voltage 240.177712;
}

object node {
	 name Bus45;
	 phases ABC;
	 nominal_voltage 240.177712;
}

object node {
	 name Bus46;
	 phases ABC;
	 nominal_voltage 240.177712;
}

object node {
	 name Bus47;
	 phases ABC;
	 nominal_voltage 240.177712;
}

object node {
	 name Bus48;
	 phases ABC;
	 nominal_voltage 240.177712;
}

object node {
	 name Bus49;
	 phases ABC;
	 nominal_voltage 240.177712;
}

object node {
	 name Bus50;
	 phases ABC;
	 nominal_voltage 240.177712;
}

object node {
	 name Bus51;
	 phases ABC;
	 nominal_voltage 240.177712;
}

object node {
	 name Bus52;
	 phases ABC;
	 nominal_voltage 240.177712;
}

object node {
	 name Bus53;
	 phases ABC;
	 nominal_voltage 240.177712;
}

object node {
	 name Bus54;
	 phases ABC;
	 nominal_voltage 240.177712;
}

object node {
	 name Bus55;
	 phases ABC;
	 nominal_voltage 240.177712;
}

object node {
	 name Bus56;
	 phases ABC;
	 nominal_voltage 240.177712;
}

object node {
	 name Bus57;
	 phases ABC;
	 nominal_voltage 240.177712;
}

object node {
	 name Bus58;
	 phases ABC;
	 nominal_voltage 240.177712;
}

object node {
	 name Bus59;
	 phases ABC;
	 nominal_voltage 240.177712;
}

object node {
	 name Bus60;
	 phases ABC;
	 nominal_voltage 240.177712;
}

object node {
	 name Bus61;
	 phases ABC;
	 nominal_voltage 240.177712;
}

object node {
	 name Bus62;
	 phases ABC;
	 nominal_voltage 240.177712;
}

object node {
	 name Bus63;
	 phases ABC;
	 nominal_voltage 240.177712;
}

object node {
	 name Bus64;
	 phases ABC;
	 nominal_voltage 240.177712;
}

object node {
	 name Bus65;
	 phases ABC;
	 nominal_voltage 240.177712;
}

object node {
	 name Bus66;
	 phases ABC;
	 nominal_voltage 240.177712;
}

object node {
	 name Bus67;
	 phases ABC;
	 nominal_voltage 240.177712;
}

object node {
	 name Bus68;
	 phases ABC;
	 nominal_voltage 240.177712;
}

object node {
	 name Bus69;
	 phases ABC;
	 nominal_voltage 240.177712;
}

object node {
	 name Bus70;
	 phases ABC;
	 nominal_voltage 240.177712;
}

object node {
	 name Bus71;
	 phases ABC;
	 nominal_voltage 240.177712;
}

object node {
	 name Bus72;
	 phases ABC;
	 nominal_voltage 240.177712;
}

object node {
	 name Bus73;
	 phases ABC;
	 nominal_voltage 240.177712;
}

object node {
	 name Bus74;
	 phases ABC;
	 nominal_voltage 240.177712;
}

object node {
	 name Bus75;
	 phases ABC;
	 nominal_voltage 240.177712;
}

object node {
	 name Bus76;
	 phases ABC;
	 nominal_voltage 240.177712;
}

object node {
	 name Bus77;
	 phases ABC;
	 nominal_voltage 240.177712;
}

object node {
	 name Bus78;
	 phases ABC;
	 nominal_voltage 240.177712;
}

object node {
	 name Bus79;
	 phases ABC;
	 nominal_voltage 240.177712;
}

object node {
	 name Bus80;
	 phases ABC;
	 nominal_voltage 240.177712;
}

object node {
	 name Bus81;
	 phases ABC;
	 nominal_voltage 240.177712;
}

object node {
	 name Bus82;
	 phases ABC;
	 nominal_voltage 240.177712;
}

object node {
	 name Bus83;
	 phases ABC;
	 nominal_voltage 240.177712;
}

object node {
	 name Bus84;
	 phases ABC;
	 nominal_voltage 240.177712;
}

object node {
	 name Bus85;
	 phases ABC;
	 nominal_voltage 240.177712;
}

object node {
	 name Bus86;
	 phases ABC;
	 nominal_voltage 240.177712;
}

object node {
	 name Bus87;
	 phases ABC;
	 nominal_voltage 240.177712;
}

object node {
	 name Bus88;
	 phases ABC;
	 nominal_voltage 240.177712;
}

object node {
	 name Bus89;
	 phases ABC;
	 nominal_voltage 240.177712;
}

object node {
	 name Bus90;
	 phases ABC;
	 nominal_voltage 240.177712;
}

object node {
	 name Bus91;
	 phases ABC;
	 nominal_voltage 240.177712;
}

object node {
	 name Bus92;
	 phases ABC;
	 nominal_voltage 240.177712;
}

object node {
	 name Bus93;
	 phases ABC;
	 nominal_voltage 240.177712;
}

object node {
	 name Bus94;
	 phases ABC;
	 nominal_voltage 240.177712;
}

object node {
	 name Bus95;
	 phases ABC;
	 nominal_voltage 240.177712;
}

object node {
	 name Bus96;
	 phases ABC;
	 nominal_voltage 240.177712;
}

object node {
	 name Bus97;
	 phases ABC;
	 nominal_voltage 240.177712;
}

object node {
	 name Bus98;
	 phases ABC;
	 nominal_voltage 240.177712;
}

object node {
	 name Bus99;
	 phases ABC;
	 nominal_voltage 240.177712;
}

object node {
	 name Bus100;
	 phases ABC;
	 nominal_voltage 240.177712;
}

object node {
	 name Bus101;
	 phases ABC;
	 nominal_voltage 240.177712;
}

object node {
	 name Bus102;
	 phases ABC;
	 nominal_voltage 240.177712;
}

object node {
	 name Bus103;
	 phases ABC;
	 nominal_voltage 240.177712;
}

object node {
	 name Bus104;
	 phases ABC;
	 nominal_voltage 240.177712;
}

object node {
	 name Bus105;
	 phases ABC;
	 nominal_voltage 240.177712;
}

object node {
	 name Bus106;
	 phases ABC;
	 nominal_voltage 240.177712;
}

object node {
	 name Bus107;
	 phases ABC;
	 nominal_voltage 240.177712;
}

object node {
	 name Bus108;
	 phases ABC;
	 nominal_voltage 240.177712;
}

object node {
	 name Bus109;
	 phases ABC;
	 nominal_voltage 240.177712;
}

object node {
	 name Bus110;
	 phases ABC;
	 nominal_voltage 240.177712;
}

object node {
	 name Bus111;
	 phases ABC;
	 nominal_voltage 240.177712;
}

object node {
	 name Bus112;
	 phases ABC;
	 nominal_voltage 240.177712;
}

object node {
	 name Bus113;
	 phases ABC;
	 nominal_voltage 240.177712;
}

object node {
	 name Bus114;
	 phases ABC;
	 nominal_voltage 240.177712;
}

object node {
	 name Bus115;
	 phases ABC;
	 nominal_voltage 240.177712;
}

object node {
	 name Bus116;
	 phases ABC;
	 nominal_voltage 240.177712;
}

object node {
	 name Bus117;
	 phases ABC;
	 nominal_voltage 240.177712;
}

object node {
	 name Bus118;
	 phases ABC;
	 nominal_voltage 240.177712;
}

object node {
	 name Bus119;
	 phases ABC;
	 nominal_voltage 240.177712;
}

object node {
	 name Bus120;
	 phases ABC;
	 nominal_voltage 240.177712;
}

object node {
	 name Bus121;
	 phases ABC;
	 nominal_voltage 240.177712;
}

object node {
	 name Bus122;
	 phases ABC;
	 nominal_voltage 240.177712;
}

object node {
	 name Bus123;
	 phases ABC;
	 nominal_voltage 240.177712;
}

object node {
	 name Bus124;
	 phases ABC;
	 nominal_voltage 240.177712;
}

object node {
	 name Bus125;
	 phases ABC;
	 nominal_voltage 240.177712;
}

object node {
	 name Bus126;
	 phases ABC;
	 nominal_voltage 240.177712;
}

object node {
	 name Bus127;
	 phases ABC;
	 nominal_voltage 240.177712;
}

object node {
	 name Bus128;
	 phases ABC;
	 nominal_voltage 240.177712;
}

object node {
	 name Bus129;
	 phases ABC;
	 nominal_voltage 240.177712;
}

object node {
	 name Bus130;
	 phases ABC;
	 nominal_voltage 240.177712;
}

object node {
	 name Bus131;
	 phases ABC;
	 nominal_voltage 240.177712;
}

object node {
	 name Bus132;
	 phases ABC;
	 nominal_voltage 240.177712;
}

object node {
	 name Bus133;
	 phases ABC;
	 nominal_voltage 240.177712;
}

object node {
	 name Bus134;
	 phases ABC;
	 nominal_voltage 240.177712;
}

object node {
	 name Bus135;
	 phases ABC;
	 nominal_voltage 240.177712;
}

object node {
	 name Bus136;
	 phases ABC;
	 nominal_voltage 240.177712;
}

object node {
	 name Bus137;
	 phases ABC;
	 nominal_voltage 240.177712;
}

object node {
	 name Bus138;
	 phases ABC;
	 nominal_voltage 240.177712;
}

object node {
	 name Bus139;
	 phases ABC;
	 nominal_voltage 240.177712;
}

object node {
	 name Bus140;
	 phases ABC;
	 nominal_voltage 240.177712;
}

object node {
	 name Bus141;
	 phases ABC;
	 nominal_voltage 240.177712;
}

object node {
	 name Bus142;
	 phases ABC;
	 nominal_voltage 240.177712;
}

object node {
	 name Bus143;
	 phases ABC;
	 nominal_voltage 240.177712;
}

object node {
	 name Bus144;
	 phases ABC;
	 nominal_voltage 240.177712;
}

object node {
	 name Bus145;
	 phases ABC;
	 nominal_voltage 240.177712;
}

object node {
	 name Bus146;
	 phases ABC;
	 nominal_voltage 240.177712;
}

object node {
	 name Bus147;
	 phases ABC;
	 nominal_voltage 240.177712;
}

object node {
	 name Bus148;
	 phases ABC;
	 nominal_voltage 240.177712;
}

object node {
	 name Bus149;
	 phases ABC;
	 nominal_voltage 240.177712;
}

object node {
	 name Bus150;
	 phases ABC;
	 nominal_voltage 240.177712;
}

object node {
	 name Bus151;
	 phases ABC;
	 nominal_voltage 240.177712;
}

object node {
	 name Bus152;
	 phases ABC;
	 nominal_voltage 240.177712;
}

object node {
	 name Bus153;
	 phases ABC;
	 nominal_voltage 240.177712;
}

object node {
	 name Bus154;
	 phases ABC;
	 nominal_voltage 240.177712;
}

object node {
	 name Bus155;
	 phases ABC;
	 nominal_voltage 240.177712;
}

object node {
	 name Bus156;
	 phases ABC;
	 nominal_voltage 240.177712;
}

object node {
	 name Bus157;
	 phases ABC;
	 nominal_voltage 240.177712;
}

object node {
	 name Bus158;
	 phases ABC;
	 nominal_voltage 240.177712;
}

object node {
	 name Bus159;
	 phases ABC;
	 nominal_voltage 240.177712;
}

object node {
	 name Bus160;
	 phases ABC;
	 nominal_voltage 240.177712;
}

object node {
	 name Bus161;
	 phases ABC;
	 nominal_voltage 240.177712;
}

object node {
	 name Bus162;
	 phases ABC;
	 nominal_voltage 240.177712;
}

object node {
	 name Bus163;
	 phases ABC;
	 nominal_voltage 240.177712;
}

object node {
	 name Bus164;
	 phases ABC;
	 nominal_voltage 240.177712;
}

object node {
	 name Bus165;
	 phases ABC;
	 nominal_voltage 240.177712;
}

object node {
	 name Bus166;
	 phases ABC;
	 nominal_voltage 240.177712;
}

object node {
	 name Bus167;
	 phases ABC;
	 nominal_voltage 240.177712;
}

object node {
	 name Bus168;
	 phases ABC;
	 nominal_voltage 240.177712;
}

object node {
	 name Bus169;
	 phases ABC;
	 nominal_voltage 240.177712;
}

object node {
	 name Bus170;
	 phases ABC;
	 nominal_voltage 240.177712;
}

object node {
	 name Bus171;
	 phases ABC;
	 nominal_voltage 240.177712;
}

object node {
	 name Bus172;
	 phases ABC;
	 nominal_voltage 240.177712;
}

object node {
	 name Bus173;
	 phases ABC;
	 nominal_voltage 240.177712;
}

object node {
	 name Bus174;
	 phases ABC;
	 nominal_voltage 240.177712;
}

object node {
	 name Bus175;
	 phases ABC;
	 nominal_voltage 240.177712;
}

object node {
	 name Bus176;
	 phases ABC;
	 nominal_voltage 240.177712;
}

object node {
	 name Bus177;
	 phases ABC;
	 nominal_voltage 240.177712;
}

object node {
	 name Bus178;
	 phases ABC;
	 nominal_voltage 240.177712;
}

object node {
	 name Bus179;
	 phases ABC;
	 nominal_voltage 240.177712;
}

object node {
	 name Bus180;
	 phases ABC;
	 nominal_voltage 240.177712;
}

object node {
	 name Bus181;
	 phases ABC;
	 nominal_voltage 240.177712;
}

object node {
	 name Bus182;
	 phases ABC;
	 nominal_voltage 240.177712;
}

object node {
	 name Bus183;
	 phases ABC;
	 nominal_voltage 240.177712;
}

object node {
	 name Bus184;
	 phases ABC;
	 nominal_voltage 240.177712;
}

object node {
	 name Bus185;
	 phases ABC;
	 nominal_voltage 240.177712;
}

object node {
	 name Bus186;
	 phases ABC;
	 nominal_voltage 240.177712;
}

object node {
	 name Bus187;
	 phases ABC;
	 nominal_voltage 240.177712;
}

object node {
	 name Bus188;
	 phases ABC;
	 nominal_voltage 240.177712;
}

object node {
	 name Bus189;
	 phases ABC;
	 nominal_voltage 240.177712;
}

object node {
	 name Bus190;
	 phases ABC;
	 nominal_voltage 240.177712;
}

object node {
	 name Bus191;
	 phases ABC;
	 nominal_voltage 240.177712;
}

object node {
	 name Bus192;
	 phases ABC;
	 nominal_voltage 240.177712;
}

object node {
	 name Bus193;
	 phases ABC;
	 nominal_voltage 240.177712;
}

object node {
	 name Bus194;
	 phases ABC;
	 nominal_voltage 240.177712;
}

object node {
	 name Bus195;
	 phases ABC;
	 nominal_voltage 240.177712;
}

object node {
	 name Bus196;
	 phases ABC;
	 nominal_voltage 240.177712;
}

object node {
	 name Bus197;
	 phases ABC;
	 nominal_voltage 240.177712;
}

object node {
	 name Bus198;
	 phases ABC;
	 nominal_voltage 240.177712;
}

object node {
	 name Bus199;
	 phases ABC;
	 nominal_voltage 240.177712;
}

object node {
	 name Bus200;
	 phases ABC;
	 nominal_voltage 240.177712;
}

object node {
	 name Bus201;
	 phases ABC;
	 nominal_voltage 240.177712;
}

object node {
	 name Bus202;
	 phases ABC;
	 nominal_voltage 240.177712;
}

object node {
	 name Bus203;
	 phases ABC;
	 nominal_voltage 240.177712;
}

object node {
	 name Bus204;
	 phases ABC;
	 nominal_voltage 240.177712;
}

object node {
	 name Bus205;
	 phases ABC;
	 nominal_voltage 240.177712;
}

object node {
	 name Bus206;
	 phases ABC;
	 nominal_voltage 240.177712;
}

object node {
	 name Bus207;
	 phases ABC;
	 nominal_voltage 240.177712;
}

object node {
	 name Bus208;
	 phases ABC;
	 nominal_voltage 240.177712;
}

object node {
	 name Bus209;
	 phases ABC;
	 nominal_voltage 240.177712;
}

object node {
	 name Bus210;
	 phases ABC;
	 nominal_voltage 240.177712;
}

object node {
	 name Bus211;
	 phases ABC;
	 nominal_voltage 240.177712;
}

object node {
	 name Bus212;
	 phases ABC;
	 nominal_voltage 240.177712;
}

object node {
	 name Bus213;
	 phases ABC;
	 nominal_voltage 240.177712;
}

object node {
	 name Bus214;
	 phases ABC;
	 nominal_voltage 240.177712;
}

object node {
	 name Bus215;
	 phases ABC;
	 nominal_voltage 240.177712;
}

object node {
	 name Bus216;
	 phases ABC;
	 nominal_voltage 240.177712;
}

object node {
	 name Bus217;
	 phases ABC;
	 nominal_voltage 240.177712;
}

object node {
	 name Bus218;
	 phases ABC;
	 nominal_voltage 240.177712;
}

object node {
	 name Bus219;
	 phases ABC;
	 nominal_voltage 240.177712;
}

object node {
	 name Bus220;
	 phases ABC;
	 nominal_voltage 240.177712;
}

object node {
	 name Bus221;
	 phases ABC;
	 nominal_voltage 240.177712;
}

object node {
	 name Bus222;
	 phases ABC;
	 nominal_voltage 240.177712;
}

object node {
	 name Bus223;
	 phases ABC;
	 nominal_voltage 240.177712;
}

object node {
	 name Bus224;
	 phases ABC;
	 nominal_voltage 240.177712;
}

object node {
	 name Bus225;
	 phases ABC;
	 nominal_voltage 240.177712;
}

object node {
	 name Bus226;
	 phases ABC;
	 nominal_voltage 240.177712;
}

object node {
	 name Bus227;
	 phases ABC;
	 nominal_voltage 240.177712;
}

object node {
	 name Bus228;
	 phases ABC;
	 nominal_voltage 240.177712;
}

object node {
	 name Bus229;
	 phases ABC;
	 nominal_voltage 240.177712;
}

object node {
	 name Bus230;
	 phases ABC;
	 nominal_voltage 240.177712;
}

object node {
	 name Bus231;
	 phases ABC;
	 nominal_voltage 240.177712;
}

object node {
	 name Bus232;
	 phases ABC;
	 nominal_voltage 240.177712;
}

object node {
	 name Bus233;
	 phases ABC;
	 nominal_voltage 240.177712;
}

object node {
	 name Bus234;
	 phases ABC;
	 nominal_voltage 240.177712;
}

object node {
	 name Bus235;
	 phases ABC;
	 nominal_voltage 240.177712;
}

object node {
	 name Bus236;
	 phases ABC;
	 nominal_voltage 240.177712;
}

object node {
	 name Bus237;
	 phases ABC;
	 nominal_voltage 240.177712;
}

object node {
	 name Bus238;
	 phases ABC;
	 nominal_voltage 240.177712;
}

object node {
	 name Bus239;
	 phases ABC;
	 nominal_voltage 240.177712;
}

object node {
	 name Bus240;
	 phases ABC;
	 nominal_voltage 240.177712;
}

object node {
	 name Bus241;
	 phases ABC;
	 nominal_voltage 240.177712;
}

object node {
	 name Bus242;
	 phases ABC;
	 nominal_voltage 240.177712;
}

object node {
	 name Bus243;
	 phases ABC;
	 nominal_voltage 240.177712;
}

object node {
	 name Bus244;
	 phases ABC;
	 nominal_voltage 240.177712;
}

object node {
	 name Bus245;
	 phases ABC;
	 nominal_voltage 240.177712;
}

object node {
	 name Bus246;
	 phases ABC;
	 nominal_voltage 240.177712;
}

object node {
	 name Bus247;
	 phases ABC;
	 nominal_voltage 240.177712;
}

object node {
	 name Bus248;
	 phases ABC;
	 nominal_voltage 240.177712;
}

object node {
	 name Bus249;
	 phases ABC;
	 nominal_voltage 240.177712;
}

object node {
	 name Bus250;
	 phases ABC;
	 nominal_voltage 240.177712;
}

object node {
	 name Bus251;
	 phases ABC;
	 nominal_voltage 240.177712;
}

object node {
	 name Bus252;
	 phases ABC;
	 nominal_voltage 240.177712;
}

object node {
	 name Bus253;
	 phases ABC;
	 nominal_voltage 240.177712;
}

object node {
	 name Bus254;
	 phases ABC;
	 nominal_voltage 240.177712;
}

object node {
	 name Bus255;
	 phases ABC;
	 nominal_voltage 240.177712;
}

object node {
	 name Bus256;
	 phases ABC;
	 nominal_voltage 240.177712;
}

object node {
	 name Bus257;
	 phases ABC;
	 nominal_voltage 240.177712;
}

object node {
	 name Bus258;
	 phases ABC;
	 nominal_voltage 240.177712;
}

object node {
	 name Bus259;
	 phases ABC;
	 nominal_voltage 240.177712;
}

object node {
	 name Bus260;
	 phases ABC;
	 nominal_voltage 240.177712;
}

object node {
	 name Bus261;
	 phases ABC;
	 nominal_voltage 240.177712;
}

object node {
	 name Bus262;
	 phases ABC;
	 nominal_voltage 240.177712;
}

object node {
	 name Bus263;
	 phases ABC;
	 nominal_voltage 240.177712;
}

object node {
	 name Bus264;
	 phases ABC;
	 nominal_voltage 240.177712;
}

object node {
	 name Bus265;
	 phases ABC;
	 nominal_voltage 240.177712;
}

object node {
	 name Bus266;
	 phases ABC;
	 nominal_voltage 240.177712;
}

object node {
	 name Bus267;
	 phases ABC;
	 nominal_voltage 240.177712;
}

object node {
	 name Bus268;
	 phases ABC;
	 nominal_voltage 240.177712;
}

object node {
	 name Bus269;
	 phases ABC;
	 nominal_voltage 240.177712;
}

object node {
	 name Bus270;
	 phases ABC;
	 nominal_voltage 240.177712;
}

object node {
	 name Bus271;
	 phases ABC;
	 nominal_voltage 240.177712;
}

object node {
	 name Bus272;
	 phases ABC;
	 nominal_voltage 240.177712;
}

object node {
	 name Bus273;
	 phases ABC;
	 nominal_voltage 240.177712;
}

object node {
	 name Bus274;
	 phases ABC;
	 nominal_voltage 240.177712;
}

object node {
	 name Bus275;
	 phases ABC;
	 nominal_voltage 240.177712;
}

object node {
	 name Bus276;
	 phases ABC;
	 nominal_voltage 240.177712;
}

object node {
	 name Bus277;
	 phases ABC;
	 nominal_voltage 240.177712;
}

object node {
	 name Bus278;
	 phases ABC;
	 nominal_voltage 240.177712;
}

object node {
	 name Bus279;
	 phases ABC;
	 nominal_voltage 240.177712;
}

object node {
	 name Bus280;
	 phases ABC;
	 nominal_voltage 240.177712;
}

object node {
	 name Bus281;
	 phases ABC;
	 nominal_voltage 240.177712;
}

object node {
	 name Bus282;
	 phases ABC;
	 nominal_voltage 240.177712;
}

object node {
	 name Bus283;
	 phases ABC;
	 nominal_voltage 240.177712;
}

object node {
	 name Bus284;
	 phases ABC;
	 nominal_voltage 240.177712;
}

object node {
	 name Bus285;
	 phases ABC;
	 nominal_voltage 240.177712;
}

object node {
	 name Bus286;
	 phases ABC;
	 nominal_voltage 240.177712;
}

object node {
	 name Bus287;
	 phases ABC;
	 nominal_voltage 240.177712;
}

object node {
	 name Bus288;
	 phases ABC;
	 nominal_voltage 240.177712;
}

object node {
	 name Bus289;
	 phases ABC;
	 nominal_voltage 240.177712;
}

object node {
	 name Bus290;
	 phases ABC;
	 nominal_voltage 240.177712;
}

object node {
	 name Bus291;
	 phases ABC;
	 nominal_voltage 240.177712;
}

object node {
	 name Bus292;
	 phases ABC;
	 nominal_voltage 240.177712;
}

object node {
	 name Bus293;
	 phases ABC;
	 nominal_voltage 240.177712;
}

object node {
	 name Bus294;
	 phases ABC;
	 nominal_voltage 240.177712;
}

object node {
	 name Bus295;
	 phases ABC;
	 nominal_voltage 240.177712;
}

object node {
	 name Bus296;
	 phases ABC;
	 nominal_voltage 240.177712;
}

object node {
	 name Bus297;
	 phases ABC;
	 nominal_voltage 240.177712;
}

object node {
	 name Bus298;
	 phases ABC;
	 nominal_voltage 240.177712;
}

object node {
	 name Bus299;
	 phases ABC;
	 nominal_voltage 240.177712;
}

object node {
	 name Bus300;
	 phases ABC;
	 nominal_voltage 240.177712;
}

object node {
	 name Bus301;
	 phases ABC;
	 nominal_voltage 240.177712;
}

object node {
	 name Bus302;
	 phases ABC;
	 nominal_voltage 240.177712;
}

object node {
	 name Bus303;
	 phases ABC;
	 nominal_voltage 240.177712;
}

object node {
	 name Bus304;
	 phases ABC;
	 nominal_voltage 240.177712;
}

object node {
	 name Bus305;
	 phases ABC;
	 nominal_voltage 240.177712;
}

object node {
	 name Bus306;
	 phases ABC;
	 nominal_voltage 240.177712;
}

object node {
	 name Bus307;
	 phases ABC;
	 nominal_voltage 240.177712;
}

object node {
	 name Bus308;
	 phases ABC;
	 nominal_voltage 240.177712;
}

object node {
	 name Bus309;
	 phases ABC;
	 nominal_voltage 240.177712;
}

object node {
	 name Bus310;
	 phases ABC;
	 nominal_voltage 240.177712;
}

object node {
	 name Bus311;
	 phases ABC;
	 nominal_voltage 240.177712;
}

object node {
	 name Bus312;
	 phases ABC;
	 nominal_voltage 240.177712;
}

object node {
	 name Bus313;
	 phases ABC;
	 nominal_voltage 240.177712;
}

object node {
	 name Bus314;
	 phases ABC;
	 nominal_voltage 240.177712;
}

object node {
	 name Bus315;
	 phases ABC;
	 nominal_voltage 240.177712;
}

object node {
	 name Bus316;
	 phases ABC;
	 nominal_voltage 240.177712;
}

object node {
	 name Bus317;
	 phases ABC;
	 nominal_voltage 240.177712;
}

object node {
	 name Bus318;
	 phases ABC;
	 nominal_voltage 240.177712;
}

object node {
	 name Bus319;
	 phases ABC;
	 nominal_voltage 240.177712;
}

object node {
	 name Bus320;
	 phases ABC;
	 nominal_voltage 240.177712;
}

object node {
	 name Bus321;
	 phases ABC;
	 nominal_voltage 240.177712;
}

object node {
	 name Bus322;
	 phases ABC;
	 nominal_voltage 240.177712;
}

object node {
	 name Bus323;
	 phases ABC;
	 nominal_voltage 240.177712;
}

object node {
	 name Bus324;
	 phases ABC;
	 nominal_voltage 240.177712;
}

object node {
	 name Bus325;
	 phases ABC;
	 nominal_voltage 240.177712;
}

object node {
	 name Bus326;
	 phases ABC;
	 nominal_voltage 240.177712;
}

object node {
	 name Bus327;
	 phases ABC;
	 nominal_voltage 240.177712;
}

object node {
	 name Bus328;
	 phases ABC;
	 nominal_voltage 240.177712;
}

object node {
	 name Bus329;
	 phases ABC;
	 nominal_voltage 240.177712;
}

object node {
	 name Bus330;
	 phases ABC;
	 nominal_voltage 240.177712;
}

object node {
	 name Bus331;
	 phases ABC;
	 nominal_voltage 240.177712;
}

object node {
	 name Bus332;
	 phases ABC;
	 nominal_voltage 240.177712;
}

object node {
	 name Bus333;
	 phases ABC;
	 nominal_voltage 240.177712;
}

object node {
	 name Bus334;
	 phases ABC;
	 nominal_voltage 240.177712;
}

object node {
	 name Bus335;
	 phases ABC;
	 nominal_voltage 240.177712;
}

object node {
	 name Bus336;
	 phases ABC;
	 nominal_voltage 240.177712;
}

object node {
	 name Bus337;
	 phases ABC;
	 nominal_voltage 240.177712;
}

object node {
	 name Bus338;
	 phases ABC;
	 nominal_voltage 240.177712;
}

object node {
	 name Bus339;
	 phases ABC;
	 nominal_voltage 240.177712;
}

object node {
	 name Bus340;
	 phases ABC;
	 nominal_voltage 240.177712;
}

object node {
	 name Bus341;
	 phases ABC;
	 nominal_voltage 240.177712;
}

object node {
	 name Bus342;
	 phases ABC;
	 nominal_voltage 240.177712;
}

object node {
	 name Bus343;
	 phases ABC;
	 nominal_voltage 240.177712;
}

object node {
	 name Bus344;
	 phases ABC;
	 nominal_voltage 240.177712;
}

object node {
	 name Bus345;
	 phases ABC;
	 nominal_voltage 240.177712;
}

object node {
	 name Bus346;
	 phases ABC;
	 nominal_voltage 240.177712;
}

object node {
	 name Bus347;
	 phases ABC;
	 nominal_voltage 240.177712;
}

object node {
	 name Bus348;
	 phases ABC;
	 nominal_voltage 240.177712;
}

object node {
	 name Bus349;
	 phases ABC;
	 nominal_voltage 240.177712;
}

object node {
	 name Bus350;
	 phases ABC;
	 nominal_voltage 240.177712;
}

object node {
	 name Bus351;
	 phases ABC;
	 nominal_voltage 240.177712;
}

object node {
	 name Bus352;
	 phases ABC;
	 nominal_voltage 240.177712;
}

object node {
	 name Bus353;
	 phases ABC;
	 nominal_voltage 240.177712;
}

object node {
	 name Bus354;
	 phases ABC;
	 nominal_voltage 240.177712;
}

object node {
	 name Bus355;
	 phases ABC;
	 nominal_voltage 240.177712;
}

object node {
	 name Bus356;
	 phases ABC;
	 nominal_voltage 240.177712;
}

object node {
	 name Bus357;
	 phases ABC;
	 nominal_voltage 240.177712;
}

object node {
	 name Bus358;
	 phases ABC;
	 nominal_voltage 240.177712;
}

object node {
	 name Bus359;
	 phases ABC;
	 nominal_voltage 240.177712;
}

object node {
	 name Bus360;
	 phases ABC;
	 nominal_voltage 240.177712;
}

object node {
	 name Bus361;
	 phases ABC;
	 nominal_voltage 240.177712;
}

object node {
	 name Bus362;
	 phases ABC;
	 nominal_voltage 240.177712;
}

object node {
	 name Bus363;
	 phases ABC;
	 nominal_voltage 240.177712;
}

object node {
	 name Bus364;
	 phases ABC;
	 nominal_voltage 240.177712;
}

object node {
	 name Bus365;
	 phases ABC;
	 nominal_voltage 240.177712;
}

object node {
	 name Bus366;
	 phases ABC;
	 nominal_voltage 240.177712;
}

object node {